
  EPA STORM WATER MANAGEMENT MODEL - VERSION 5.0 (Build 5.0.014)
  --------------------------------------------------------------

  
  *********************************************************
  NOTE: The summary statistics displayed in this report are
  based on results found at every computational time step,  
  not just on results from each reporting time step.
  *********************************************************
  
  ****************
  Analysis Options
  ****************
  Flow Units ............... CFS
  Process Models:
    Rainfall/Runoff ........ NO
    Snowmelt ............... NO
    Groundwater ............ NO
    Flow Routing ........... YES
    Water Quality .......... NO
  Flow Routing Method ...... DYNWAVE
  Starting Date ............ MAR-03-2011 00:00:00
  Ending Date .............. MAR-09-2011 00:00:00
  Antecedent Dry Days ...... 0.0
  Report Time Step ......... 01:00:00
  Routing Time Step ........ 30.00 sec
  
  
  **************************        Volume        Volume
  Flow Routing Continuity        acre-feet      10^6 gal
  **************************     ---------     ---------
  Dry Weather Inflow .......         0.000         0.000
  Wet Weather Inflow .......         0.000         0.000
  Groundwater Inflow .......         0.000         0.000
  RDII Inflow ..............         0.000         0.000
  External Inflow ..........    157085.531     51188.667
  External Outflow .........    156777.528     51088.300
  Internal Outflow .........         0.000         0.000
  Evaporation Loss .........         0.000         0.000
  Initial Stored Volume ....        29.315         9.553
  Final Stored Volume ......       356.686       116.232
  Continuity Error (%) .....        -0.012
  
  
  ***************************
  Time-Step Critical Elements
  ***************************
  None
  
  
  ********************************
  Highest Flow Instability Indexes
  ********************************
  All links are stable.
  
  
  *************************
  Routing Time Step Summary
  *************************
  Minimum Time Step           :     1.00 sec
  Average Time Step           :    30.00 sec
  Maximum Time Step           :    30.00 sec
  Percent in Steady State     :     0.00
  Average Iterations per Step :     2.00
  
  
  ******************
  Node Depth Summary
  ******************
  
  ---------------------------------------------------------------------
                                 Average  Maximum  Maximum  Time of Max
                                   Depth    Depth      HGL   Occurrence
  Node                 Type         Feet     Feet     Feet  days hr:min
  ---------------------------------------------------------------------
  2                    JUNCTION     9.13     9.18    21.68     0  00:30
  3                    JUNCTION     9.11     9.20    34.20     0  00:23
  4                    JUNCTION     2.27     2.28    39.78     0  00:22
  5                    JUNCTION     2.27     3.14    53.14     0  00:01
  6                    JUNCTION     7.70     7.84    51.59     0  00:13
  7                    JUNCTION     7.70     7.81    70.31     0  00:09
  8                    JUNCTION     7.71     8.26    89.51     0  00:03
  1                    OUTFALL      9.00     9.00     9.00     0  00:00
  
  
  *******************
  Node InFlow Summary
  *******************
  
  -------------------------------------------------------------------------------------
                                  Maximum  Maximum                  Lateral       Total
                                  Lateral    Total  Time of Max      Inflow      Inflow
                                   Inflow   Inflow   Occurrence      Volume      Volume
  Node                 Type           CFS      CFS  days hr:min    10^6 gal    10^6 gal
  -------------------------------------------------------------------------------------
  2                    JUNCTION      0.00 13324.99     0  00:26       0.000   51107.250
  3                    JUNCTION      0.00 13419.88     0  00:14       0.000   51139.587
  4                    JUNCTION      0.00  1591.71     0  00:02       0.000    4653.905
  5                    JUNCTION   1200.00  1200.00     0  00:00    4653.172    4653.170
  6                    JUNCTION      0.00 12169.87     0  00:11       0.000   46508.250
  7                    JUNCTION      0.00 12603.04     0  00:04       0.000   46526.313
  8                    JUNCTION  12000.00 12000.00     0  00:00   46531.718   46531.696
  1                    OUTFALL       0.00 13257.51     0  00:31       0.000   51084.505
  
  
  **********************
  Node Surcharge Summary
  **********************
  
  No nodes were surcharged.
  
  
  *********************
  Node Flooding Summary
  *********************
  
  No nodes were flooded.
  
  
  ***********************
  Outfall Loading Summary
  ***********************
  
  -----------------------------------------------------------
                        Flow       Avg.      Max.       Total
                        Freq.      Flow      Flow      Volume
  Outfall Node          Pcnt.       CFS       CFS    10^6 gal
  -----------------------------------------------------------
  1                     99.94  13181.40  13257.51   51084.505
  -----------------------------------------------------------
  System                99.94  13181.40  13257.51   51084.505
  
  
  ********************
  Link Flow Summary
  ********************
  
  -----------------------------------------------------------------------------
                                 Maximum  Time of Max   Maximum    Max/    Max/
                                  |Flow|   Occurrence  Velocity    Full    Full
  Link                 Type          CFS  days hr:min    ft/sec    Flow   Depth
  -----------------------------------------------------------------------------
  1                    CONDUIT  12603.04     0  00:04     17.24    0.12    0.31
  2                    CONDUIT  12169.87     0  00:11     14.78    0.11    0.31
  3                    CONDUIT  12261.06     0  00:14     14.90    0.12    0.34
  4                    CONDUIT   1591.71     0  00:02      8.83    0.02    0.12
  5                    CONDUIT   1214.62     0  00:22      4.06    0.01    0.23
  6                    CONDUIT  13324.99     0  00:26     12.81    0.15    0.37
  7                    CONDUIT  13257.51     0  00:31     11.46    0.15    0.36
  
  
  ***************************
  Flow Classification Summary
  ***************************
  
  -----------------------------------------------------------------------------------------
                      Adjusted    --- Fraction of Time in Flow Class ----   Avg.     Avg.  
                       /Actual         Up    Down  Sub   Sup   Up    Down   Froude   Flow  
  Conduit               Length    Dry  Dry   Dry   Crit  Crit  Crit  Crit   Number   Change
  -----------------------------------------------------------------------------------------
  1                       1.00   0.00  0.00  0.00  1.00  0.00  0.00  0.00     0.88   0.0000
  2                       1.00   0.00  0.00  0.00  1.00  0.00  0.00  0.00     0.88   0.0000
  3                       1.00   0.00  0.00  0.00  1.00  0.00  0.00  0.00     0.76   0.0000
  4                       1.00   0.00  0.00  0.00  1.00  0.00  0.00  0.00     0.60   0.0000
  5                       1.00   0.00  0.00  0.00  1.00  0.00  0.00  0.00     0.14   0.0000
  6                       1.00   0.00  0.00  0.00  1.00  0.00  0.00  0.00     0.73   0.0000
  7                       1.00   0.00  0.00  0.00  1.00  0.00  0.00  0.00     0.74   0.0000
  
  
  *************************
  Conduit Surcharge Summary
  *************************
  
  No conduits were surcharged.
  

  Analysis begun on:  Thu Mar 03 13:54:29 2011
  Analysis ended on:  Thu Mar 03 13:54:30 2011
  Total elapsed time: 00:00:01